LAMMPS (31 Mar 2017)
#-------------------------- Initial Setup -------------------------------------#
  units             lj
  atom_style        atomic
  boundary          p p p # PBC
#------------------------------------------------------------------------------#

#-------------------------- Atomic Setup --------------------------------------#
# Reads data from thermal simulation and adds pair_coeff's because read data
# does not store these correctly

  pair_style        lj/cut 2.5 # Define interaction potential.
  orthogonal box = (-4.705 -4.705 -4.705) to (4.705 4.705 4.705)
  reading atoms ...
  1000 atoms
  reading velocities ...
  1000 velocities

  pair_coeff        1 1 1.0 1.0
  pair_coeff        1 2 1.5 0.80
  pair_coeff        2 2 0.5 0.88

#------------------------------------------------------------------------------#

#-------------------------------- Dumps ---------------------------------------#
# Dump stride is choosen so that frames are printed every sqrt(\epsilon/\sigma)
# timesteps as in Schoenholz Nature 2016. Subsequent simulations should have
# higher stride once we do not need to calculate p-hop
  dump              dumpID all custom 200 run.lammpstrj id type x y z
#------------------------------------------------------------------------------#

#------------------------------ Fixes -----------------------------------------#
# Temperature was choosen by looking at Sam's PNAs T=0.47 is above MCT of KA
# model
  fix               integrator all nvt temp 0.47 0.47 1.0
#------------------------------------------------------------------------------#

#------------------------- Thermo stuff ---------------------------------------#
# Timestep chosen so that we are well below (~1/40) the fastest vibrational
# frequency of the system (sqrt(m/V''(r0)) where r0 is the minima of the LJ
# potential. Thermo choosen for same reason as dump. Initial velocity choosen
# to be temperature of initial randomization
  thermo_style      custom step pe ke press temp # Output.
  thermo            200 # Output stride.
  timestep          0.005
#------------------------------------------------------------------------------#

#------------------------- Running the Simulation -----------------------------#
# Simulation length choosen to be 1x \tau_alpha time. This should give 1000
# frames.
  run               200000
  update every 1 steps, delay 10 steps, check yes
Step PotEng KinEng Press Temp
0   -7.6531389   0.69454495    2.8701978   0.46349346
Averages over the last 501 of 1001 rows, steps 100000 to 200000:
PotEng KinEng Press Temp
-7.6247 0.705686 3.07056 0.470928
Loop time of 91.892 on 4 procs for 200000 steps with 1000 atoms

#------------------------------------------------------------------------------#

#------------------------- Writing Simulation data ----------------------------#
  write_data        data.run
#------------------------------------------------------------------------------#
